Version 4
SHEET 1 1252 1044
WIRE 560 -320 512 -320
WIRE 592 -320 560 -320
WIRE 512 -272 512 -320
WIRE 592 -224 592 -240
WIRE 624 -224 592 -224
WIRE -128 -160 -256 -160
WIRE 192 -160 -128 -160
WIRE 352 -160 192 -160
WIRE 192 -144 192 -160
WIRE 512 -144 512 -208
WIRE 560 -144 512 -144
WIRE 592 -144 560 -144
WIRE 352 -112 352 -160
WIRE 624 -112 624 -224
WIRE 720 -112 624 -112
WIRE 1216 -112 944 -112
WIRE -128 -64 -128 -160
WIRE 192 -64 192 -80
WIRE 48 -32 -32 -32
WIRE 144 -32 48 -32
WIRE 720 -32 592 -32
WIRE 976 -32 944 -32
WIRE 1008 -32 976 -32
WIRE 1040 -32 1008 -32
WIRE -256 -16 -256 -160
WIRE -32 -16 -32 -32
WIRE 1008 -16 1008 -32
WIRE 144 16 144 -32
WIRE 352 32 352 -32
WIRE 352 32 192 32
WIRE 448 32 400 32
WIRE 480 32 448 32
WIRE 48 48 48 -32
WIRE 144 48 128 48
WIRE 192 48 192 32
WIRE 192 48 144 48
WIRE 720 48 640 48
WIRE 976 48 944 48
WIRE -32 64 -96 64
WIRE 352 64 352 32
WIRE 592 64 592 -32
WIRE 640 64 640 48
WIRE 1008 64 1008 48
WIRE 976 80 976 48
WIRE 480 128 480 112
WIRE 512 128 480 128
WIRE -128 144 -128 16
WIRE -32 144 -128 144
WIRE 208 144 64 144
WIRE 400 144 400 32
WIRE -96 160 -96 64
WIRE -80 160 -96 160
WIRE 144 160 144 48
WIRE 240 176 208 176
WIRE 64 192 64 144
WIRE 448 208 400 208
WIRE 480 208 448 208
WIRE 512 208 512 128
WIRE 528 208 512 208
WIRE 848 224 592 224
WIRE 192 240 192 176
WIRE 240 240 240 176
WIRE 240 240 192 240
WIRE 528 240 240 240
WIRE 192 256 192 240
WIRE 752 272 736 272
WIRE 784 272 752 272
WIRE 1040 272 960 272
WIRE -128 304 -128 144
WIRE -128 336 -128 304
WIRE 1040 400 1040 272
WIRE 1040 400 912 400
WIRE -256 416 -256 64
WIRE -32 416 -32 176
WIRE -32 416 -256 416
WIRE 144 416 -32 416
WIRE 192 416 192 336
WIRE 192 416 144 416
WIRE 352 416 352 128
WIRE 352 416 192 416
WIRE 560 416 560 256
WIRE 560 416 352 416
WIRE 144 432 144 416
WIRE 928 432 912 432
WIRE 992 432 928 432
WIRE 848 448 800 448
WIRE 800 512 800 448
WIRE 800 512 720 512
WIRE 64 528 64 272
WIRE 656 528 64 528
WIRE 928 528 928 432
WIRE 928 528 912 528
WIRE 784 544 720 544
WIRE 784 560 784 544
WIRE 848 560 784 560
WIRE 1216 560 1216 -112
WIRE 1216 560 912 560
FLAG 144 432 0
FLAG -480 288 0
FLAG -480 608 InjPulse
FLAG 752 272 InjPulse
FLAG -480 688 0
FLAG -128 304 InjPulse
FLAG -480 480 0
FLAG -480 400 PWM
FLAG 992 432 InjPulse
FLAG -480 208 3.3V
FLAG 560 192 3.3V
FLAG 448 -48 3.3V
FLAG 448 208 0
FLAG 592 64 0
FLAG 1040 -32 3.3V
FLAG 1008 64 0
FLAG 640 144 0
FLAG 976 144 0
FLAG 560 -400 3.3V
FLAG 560 -144 0
SYMBOL ind 336 -128 R0
SYMATTR InstName L1
SYMATTR Value 2.5m
SYMATTR SpiceLine Ipk=6A Rser=3
SYMBOL zener 368 128 R180
WINDOW 0 24 64 Left 2
WINDOW 3 24 0 Left 2
SYMATTR InstName D2
SYMATTR Value PTZ36B
SYMBOL voltage -256 -32 R0
WINDOW 123 0 0 Left 2
WINDOW 39 0 0 Left 2
SYMATTR InstName V1
SYMATTR Value 14.4
SYMBOL res 144 32 R90
WINDOW 0 0 56 VBottom 2
WINDOW 3 32 56 VTop 2
SYMATTR InstName R2
SYMATTR Value 470
SYMBOL res -48 -32 R0
SYMATTR InstName R3
SYMATTR Value 1.8k
SYMBOL res -144 -80 R0
SYMATTR InstName R1
SYMATTR Value 1k
SYMBOL voltage -480 384 R0
WINDOW 123 0 0 Left 2
WINDOW 39 0 0 Left 2
SYMATTR InstName V2
SYMATTR Value PULSE(0 3.3 0 100n 100n 50u 250u 4000)
SYMBOL voltage -480 592 R0
WINDOW 123 0 0 Left 2
WINDOW 39 0 0 Left 2
SYMATTR InstName V3
SYMATTR Value PULSE(0 3.3 15m 100n 100n 8.0m 20m 4)
SYMBOL pmos 144 -64 R0
SYMATTR InstName M2
SYMATTR Value AO3401
SYMBOL diode 208 -80 R180
WINDOW 0 24 64 Left 2
WINDOW 3 24 0 Left 2
SYMATTR InstName D1
SYMBOL res 48 176 R0
SYMATTR InstName R4
SYMATTR Value 100
SYMBOL res 176 240 R0
SYMATTR InstName R5
SYMATTR Value 0.1
SYMBOL Comparators\\LT1018 560 224 R0
SYMATTR InstName U1
SYMBOL voltage -480 192 R0
WINDOW 0 24 96 Left 2
WINDOW 3 24 16 Left 2
WINDOW 123 0 0 Left 2
WINDOW 39 0 0 Left 2
SYMATTR InstName V6
SYMATTR Value 3.3
SYMBOL Digital\\inv 784 208 R0
SYMATTR InstName A3
SYMATTR SpiceLine Vhigh=3.3V
SYMBOL Digital\\srflop 896 176 R0
SYMATTR InstName A4
SYMATTR SpiceLine Vhigh=3.3V
SYMBOL Digital\\and 880 496 R180
SYMATTR InstName A1
SYMATTR SpiceLine Vhigh=3.3V
SYMBOL Digital\\and 880 608 R180
SYMATTR InstName A2
SYMATTR SpiceLine Vhigh=3.3V
SYMBOL Digital\\or 688 576 R180
SYMATTR InstName A5
SYMATTR SpiceLine Vhigh=5V
SYMBOL diode 384 144 R0
SYMATTR InstName D3
SYMBOL res 464 16 R0
SYMATTR InstName R6
SYMATTR Value 4k
SYMBOL res 464 112 R0
SYMATTR InstName R7
SYMATTR Value 6k
SYMBOL res 432 -64 R0
SYMATTR InstName R8
SYMATTR Value 1k
SYMBOL SpecialFunctions\\LTC6992-2 832 -32 R0
SYMATTR InstName U2
SYMBOL cap 992 -16 R0
SYMATTR InstName C1
SYMATTR Value 0.1µ
SYMBOL res 624 48 R0
SYMATTR InstName R9
SYMATTR Value 500k
SYMBOL diode 960 80 R0
SYMATTR InstName D4
SYMBOL res 960 -48 R0
SYMATTR InstName R10
SYMATTR Value 10k
SYMBOL res 576 -336 R0
SYMATTR InstName R11
SYMATTR Value 6k
SYMBOL res 576 -240 R0
SYMATTR InstName R12
SYMATTR Value 4k
SYMBOL res 544 -416 R0
SYMATTR InstName R13
SYMATTR Value 1k
SYMBOL diode 496 -272 R0
SYMATTR InstName D5
SYMBOL AutoGenerated\\AO3400 176 160 R0
SYMATTR InstName U3
SYMBOL AutoGenerated\\AO3400 -64 160 R0
SYMATTR InstName U4
TEXT -288 424 Left 2 !.tran 50m
TEXT -608 -200 Left 2 !.inc Z:\\home\\hoogendijkta\\Downloads\\AO3400.mod
