Version 4
SHEET 1 1252 964
WIRE 416 -208 256 -208
WIRE 16 -160 -112 -160
WIRE 256 -160 256 -208
WIRE 256 -160 16 -160
WIRE 256 -144 256 -160
WIRE 16 -64 16 -160
WIRE 256 -64 256 -80
WIRE 176 -32 112 -32
WIRE 208 -32 176 -32
WIRE -112 -16 -112 -160
WIRE 112 -16 112 -32
WIRE 112 0 112 -16
WIRE 208 16 208 -32
WIRE 416 32 416 -128
WIRE 416 32 256 32
WIRE 176 48 176 -32
WIRE 256 48 256 32
WIRE 416 64 416 32
WIRE 112 80 112 64
WIRE 256 80 256 48
WIRE 480 96 464 96
WIRE 512 96 480 96
WIRE 480 112 480 96
WIRE 512 128 512 96
WIRE 464 144 464 96
WIRE 16 160 16 16
WIRE 64 160 16 160
WIRE 208 160 176 160
WIRE 176 192 176 160
WIRE 480 224 464 224
WIRE 256 240 256 176
WIRE 464 240 256 240
WIRE 880 240 544 240
WIRE 256 256 256 240
WIRE 464 256 464 240
WIRE 480 256 464 256
WIRE 192 272 176 272
WIRE 800 288 752 288
WIRE 16 304 16 160
WIRE 752 320 752 288
WIRE 752 320 736 320
WIRE 16 336 16 304
WIRE 880 352 880 240
WIRE 960 352 880 352
WIRE 736 368 736 320
WIRE 800 400 800 288
WIRE 960 400 800 400
WIRE 1152 400 1072 400
WIRE -112 416 -112 64
WIRE 112 416 112 176
WIRE 112 416 -112 416
WIRE 256 416 256 336
WIRE 256 416 112 416
WIRE 416 416 416 128
WIRE 416 416 256 416
WIRE 512 416 512 272
WIRE 512 416 416 416
WIRE 256 432 256 416
WIRE 736 464 736 432
WIRE 176 480 176 272
WIRE 736 480 736 464
WIRE 160 608 160 544
WIRE 160 608 144 608
WIRE 192 624 192 544
WIRE 256 624 192 624
WIRE 144 672 144 608
WIRE 256 672 256 624
WIRE 176 752 176 736
WIRE 272 752 272 736
WIRE 272 752 176 752
WIRE 304 752 304 736
WIRE 1152 752 1152 400
WIRE 1152 752 304 752
WIRE 160 784 160 736
WIRE 160 800 160 784
WIRE 272 816 272 752
FLAG 256 432 0
FLAG 480 112 0
FLAG -752 496 InjPulse
FLAG 736 464 InjPulse
FLAG -752 576 0
FLAG 16 304 InjPulse
FLAG -672 528 0
FLAG -672 448 PWM
FLAG 160 784 PWM
FLAG 272 816 InjPulse
SYMBOL nmos 208 80 R0
SYMATTR InstName M1
SYMATTR Value BSC050N03MS
SYMBOL ind 400 -224 R0
SYMATTR InstName L1
SYMATTR Value 2.5m
SYMATTR SpiceLine Ipk=6A Rser=3
SYMBOL zener 432 128 R180
WINDOW 0 24 64 Left 2
WINDOW 3 24 0 Left 2
SYMATTR InstName D2
SYMATTR Value PTZ36B
SYMBOL voltage -112 -32 R0
WINDOW 123 0 0 Left 2
WINDOW 39 0 0 Left 2
SYMATTR InstName V1
SYMATTR Value 14
SYMBOL nmos 64 80 R0
SYMATTR InstName M3
SYMATTR Value BSS123
SYMBOL res 272 32 R90
WINDOW 0 0 56 VBottom 2
WINDOW 3 32 56 VTop 2
SYMATTR InstName R2
SYMATTR Value 180
SYMBOL res 96 -32 R0
SYMATTR InstName R3
SYMATTR Value 470
SYMBOL res 0 -80 R0
SYMATTR InstName R1
SYMATTR Value 1000
SYMBOL voltage -672 432 R0
WINDOW 123 0 0 Left 2
WINDOW 39 0 0 Left 2
SYMATTR InstName V2
SYMATTR Value PULSE(0 3.3 0 100n 100n 50u 250u 4000)
SYMBOL voltage -752 480 R0
WINDOW 123 0 0 Left 2
WINDOW 39 0 0 Left 2
SYMATTR InstName V3
SYMATTR Value PULSE(0 3.3 15m 100n 100n 3.0m 10m 4)
SYMBOL pmos 208 -64 R0
SYMATTR InstName M2
SYMATTR Value AO3401
SYMBOL diode 272 -80 R180
WINDOW 0 24 64 Left 2
WINDOW 3 24 0 Left 2
SYMATTR InstName D1
SYMBOL res 160 176 R0
SYMATTR InstName R4
SYMATTR Value 100
SYMBOL res 240 240 R0
SYMATTR InstName R5
SYMATTR Value 0.1
SYMBOL Comparators\\LT1018 512 240 R0
SYMATTR InstName U1
SYMBOL voltage 464 240 R180
WINDOW 0 24 96 Left 2
WINDOW 3 24 16 Left 2
WINDOW 123 0 0 Left 2
WINDOW 39 0 0 Left 2
SYMATTR InstName V4
SYMATTR Value 400m
SYMBOL voltage 512 224 R180
WINDOW 0 24 96 Left 2
WINDOW 3 24 16 Left 2
WINDOW 123 0 0 Left 2
WINDOW 39 0 0 Left 2
SYMATTR InstName V6
SYMATTR Value 3.3
SYMBOL Digital\\inv 672 432 R270
SYMATTR InstName A3
SYMATTR SpiceLine Vhigh=3.3V
SYMBOL Digital\\srflop 1008 304 R0
SYMATTR InstName A4
SYMATTR SpiceLine Vhigh=3.3V
SYMBOL Digital\\and 208 704 R270
SYMATTR InstName A1
SYMATTR SpiceLine Vhigh=3.3V
SYMBOL Digital\\and 96 704 R270
SYMATTR InstName A2
SYMATTR SpiceLine Vhigh=3.3V
SYMBOL Digital\\or 128 512 R270
SYMATTR InstName A5
SYMATTR SpiceLine Vhigh=3.3V
SYMBOL SpecialFunctions\\LTC6992-1 -96 848 R0
SYMATTR InstName U2
TEXT -144 424 Left 2 !.tran 50m
